tests/fuzzer/corpus_json/24_columnar_21_random_006.json
{
  "version": "1.0",
  "type": "input",
  "is_batch": false,
  "attributes": {
    "node": [
      "id",
      "u_rated"
    ],
    "source": [
      "id",
      "node",
      "status",
      "u_ref",
      "u_ref_angle",
      "sk",
      "rx_ratio",
      "z01_ratio"
    ],
    "line": [
      "id",
      "from_node",
      "to_node",
      "from_status",
      "to_status",
      "r1",
      "x1",
      "c1",
      "tan1",
      "r0",
      "x0",
      "c0",
      "tan0",
      "i_n"
    ],
    "sym_load": [
      "id",
      "node",
      "status",
      "type",
      "p_specified",
      "q_specified"
    ]
  },
  "data": {
    "node": [
      [
        0,
        380000.0
      ],
      [
        1,
        380000.0
      ],
      [
        2,
        380000.0
      ],
      [
        3,
        380000.0
      ],
      [
        4,
        380000.0
      ],
      [
        5,
        380000.0
      ],
      [
        6,
        380000.0
      ],
      [
        7,
        380000.0
      ],
      [
        8,
        380000.0
      ],
      [
        9,
        380000.0
      ],
      [
        10,
        380000.0
      ],
      [
        11,
        380000.0
      ],
      [
        12,
        380000.0
      ],
      [
        13,
        380000.0
      ]
    ],
    "source": [
      [
        14,
        0,
        1,
        0.9970069255861891,
        0.0,
        821971846.9154948,
        0.13081074147232896,
        1.0
      ],
      [
        15,
        13,
        1,
        1.0,
        0.0,
        662852281.0274793,
        0.1,
        1.0
      ]
    ],
    "line": [
      [
        16,
        0,
        1,
        1,
        1,
        2.351271285322225,
        3.7986531754894655,
        3.7316037207384154e-07,
        0.0,
        0.3,
        0.3,
        1e-09,
        0.0,
        772.4384375786103
      ],
      [
        17,
        1,
        2,
        1,
        1,
        1.3634904283598537,
        4.009577415813018,
        7.29824832622016e-07,
        0.0,
        0.3,
        0.3,
        1e-09,
        0.0,
        419.86637675365034
      ],
      [
        18,
        2,
        3,
        1,
        1,
        2.6915260977763844,
        3.410258706443392,
        1.929848757640874e-07,
        0.0,
        0.3,
        0.3,
        1e-09,
        0.0,
        558.0790138433014
      ],
      [
        19,
        3,
        4,
        1,
        1,
        4.0256202492448665,
        1.3276052721925102,
        8.033653096113133e-07,
        0.0,
        0.3,
        0.3,
        1e-09,
        0.0,
        688.8329832794365
      ],
      [
        20,
        4,
        5,
        1,
        1,
        4.221411623980825,
        1.6779100891290715,
        9.313459219143227e-08,
        0.0,
        0.3,
        0.3,
        1e-09,
        0.0,
        802.2798926073716
      ],
      [
        21,
        5,
        6,
        1,
        1,
        4.023907566461215,
        2.226062070564216,
        9.378037419593965e-08,
        0.0,
        0.3,
        0.3,
        1e-09,
        0.0,
        205.19042435094505
      ],
      [
        22,
        6,
        7,
        1,
        1,
        3.174594260618495,
        1.4559178090673282,
        9.513730037635795e-07,
        0.0,
        0.3,
        0.3,
        1e-09,
        0.0,
        592.6840988824974
      ],
      [
        23,
        7,
        8,
        1,
        1,
        1.0043715994024343,
        3.277019966865921,
        3.603795654080961e-07,
        0.0,
        0.3,
        0.3,
        1e-09,
        0.0,
        933.4098429560353
      ],
      [
        24,
        8,
        9,
        1,
        1,
        4.547556012635045,
        2.573255806262895,
        6.445718107374947e-07,
        0.0,
        0.3,
        0.3,
        1e-09,
        0.0,
        700.9312492123565
      ],
      [
        25,
        9,
        10,
        1,
        1,
        4.027524609256186,
        4.881875027578088,
        2.8421980392027254e-08,
        0.0,
        0.3,
        0.3,
        1e-09,
        0.0,
        367.76265727316394
      ],
      [
        26,
        10,
        11,
        1,
        1,
        3.0087362017366512,
        1.5216220303393757,
        5.891567403047134e-07,
        0.0,
        0.3,
        0.3,
        1e-09,
        0.0,
        98.79058826830668
      ],
      [
        27,
        11,
        12,
        1,
        1,
        4.400394211657956,
        2.6263159215124485,
        1.1682439303553393e-07,
        0.0,
        0.3,
        0.3,
        1e-09,
        0.0,
        666.1137596160604
      ],
      [
        28,
        12,
        13,
        1,
        1,
        1.5614033013210942,
        0.9811206675993911,
        4.837442802096808e-07,
        0.0,
        0.3,
        0.3,
        1e-09,
        0.0,
        146.724490459038
      ]
    ],
    "sym_load": [
      [
        29,
        1,
        1,
        2,
        4428.106565062248,
        -6225.066665104404
      ],
      [
        30,
        2,
        1,
        2,
        -33417.58764126037,
        8088.7570487493285
      ],
      [
        31,
        4,
        1,
        1,
        5474.7661786758545,
        -4217.016081983637
      ],
      [
        32,
        6,
        1,
        0,
        -15422.268816933094,
        4926.260709513357
      ],
      [
        33,
        7,
        1,
        1,
        -50937.791458271575,
        9585.12069121854
      ],
      [
        34,
        11,
        1,
        1,
        59219.767267213465,
        333.73332417320853
      ],
      [
        35,
        12,
        1,
        2,
        63306.48423591815,
        8814.50311629934
      ],
      [
        36,
        13,
        1,
        2,
        -46836.056632759915,
        -246.72005733440346
      ]
    ]
  }
}
